%%%%%%%%%%%%%%%%%%%%%%%%%%%%%%%%%%%%%%%%%%%%%%%%%%%%%%%%%%%%%%%%%%%%%%%%%%%%%%%%
%                                                                              %
% SU2 configuration file                                                       %
% Case description: Optimization case for the NACA_0012_wing in inviscid flow  %
% Author: Neelappagouda V H, Devendra P Ghate.	              	               %
% Institution: Indian Institute of Space science and Technology(IIST).         %
% Date: 01.04.2020                                                             %
% File Version 7.2.0 "Blackbird"                                               %
%                                                                              %
%%%%%%%%%%%%%%%%%%%%%%%%%%%%%%%%%%%%%%%%%%%%%%%%%%%%%%%%%%%%%%%%%%%%%%%%%%%%%%%%

% ------------- DIRECT, ADJOINT, AND LINEARIZED PROBLEM DEFINITION ------------%
%
% Physical governing equations (EULER, NAVIER_STOKES,
%                               WAVE_EQUATION, HEAT_EQUATION, FEM_ELASTICITY,
%                               POISSON_EQUATION)
SOLVER= EULER
%
% Mathematical problem (DIRECT, CONTINUOUS_ADJOINT, DISCRETE_ADJOINT)
MATH_PROBLEM= DIRECT
%
% Restart solution (NO, YES)
RESTART_SOL= NO

% -------------------- COMPRESSIBLE FREE-STREAM DEFINITION --------------------%
%
% Mach number (non-dimensional, based on the free-stream values)
MACH_NUMBER= 0.4
%
% Angle of attack (degrees)
AOA= 3.0
%
% Free-stream pressure (101325.0 N/m^2 by default, only for Euler equations)
FREESTREAM_PRESSURE= 101325.0
%
% Free-stream temperature (288.15 K by default)
FREESTREAM_TEMPERATURE= 288.15

% -------------------------- CL DRIVER DEFINITION -----------------------------%
%
% Activate fixed lift mode (specify a CL instead of AoA, NO/YES)
FIXED_CL_MODE= NO
%
% Target coefficient of lift for fixed lift mode (0.80 by default)
TARGET_CL= 0.2625 
%
% Estimation of dCL/dAlpha (0.2 per degree by default)
DCL_DALPHA= 0.1
%
% Maximum number of iterations between AoA updates
UPDATE_AOA_ITER_LIMIT= 150
%
% Number of iterations to evaluate dCL_dAlpha by using finite differences (500 by default)
ITER_DCL_DALPHA= 100

% ---------------------- REFERENCE VALUE DEFINITION ---------------------------%
%
% Reference origin for moment computation
REF_ORIGIN_MOMENT_X = 0.25
REF_ORIGIN_MOMENT_Y = 0.00
REF_ORIGIN_MOMENT_Z = 0.00
%
% Reference length for pitching, rolling, and yawing non-dimensional moment
REF_LENGTH= 1
%
% Reference area for force coefficients (0 implies automatic calculation)
REF_AREA= 0
%
% Flow non-dimensionalization (DIMENSIONAL, FREESTREAM_PRESS_EQ_ONE,
%                              FREESTREAM_VEL_EQ_MACH, FREESTREAM_VEL_EQ_ONE)
REF_DIMENSIONALIZATION= FREESTREAM_PRESS_EQ_ONE

% ----------------------- BOUNDARY CONDITION DEFINITION -----------------------%
%
% Marker of the Euler boundary (0 implies no marker)
MARKER_EULER= ( WALL )
%
% Marker of the far field (0 implies no marker)
MARKER_FAR= ( XNORMAL_FACES , ZNORMAL_FACES, YNORMAL_FACE )
%
% Marker of symmetry boundary (0 implies no marker)
MARKER_SYM= ( SYMMETRY)
%
% Marker of the surface which is going to be plotted or designed
MARKER_PLOTTING= ( WALL )
%
% Marker of the surface where the functional (Cd, Cl, etc.) will be evaluated
MARKER_MONITORING= ( WALL )

% ------------- COMMON PARAMETERS DEFINING THE NUMERICAL METHOD ---------------%
%
% Numerical method for spatial gradients (GREEN_GAUSS, WEIGHTED_LEAST_SQUARES)
NUM_METHOD_GRAD= GREEN_GAUSS
%
% Objective function in gradient evaluation  (DRAG, LIFT, SIDEFORCE, MOMENT_X,
%                                             MOMENT_Y, MOMENT_Z, EFFICIENCY,
%                                             EQUIVALENT_AREA, NEARFIELD_PRESSURE,
%                                             FORCE_X, FORCE_Y, FORCE_Z, THRUST,
%                                             TORQUE, FREE_SURFACE, TOTAL_HEATFLUX,
%                                             MAXIMUM_HEATFLUX, INVERSE_DESIGN_PRESSURE,
%                                             INVERSE_DESIGN_HEATFLUX)
OBJECTIVE_FUNCTION= DRAG
%
% Courant-Friedrichs-Lewy condition of the finest grid
CFL_NUMBER= 7.5
%
% Number of total iterations
ITER= 2

% ------------------------ LINEAR SOLVER DEFINITION ---------------------------%
%
% Linear solver for the implicit formulation (BCGSTAB, FGMRES)
LINEAR_SOLVER= FGMRES
%
% Preconditioner of the Krylov linear solver (JACOBI, ILU, LINELET, LU_SGS)
LINEAR_SOLVER_PREC= ILU 
%
% Min error of the linear solver for the implicit formulation
LINEAR_SOLVER_ERROR= 1E-6
%
% Max number of iterations of the linear solver for the implicit formulation
LINEAR_SOLVER_ITER= 2 

% --------------------- FLOW NUMERICAL METHOD DEFINITION ----------------------%
% Convective numerical method: (JST, LAX-FRIEDRICH, ROE-1ST_ORDER, 
%                               ROE-2ND_ORDER)
CONV_NUM_METHOD_FLOW= JST
%
% 2nd and 4th order artificial dissipation coefficients
JST_SENSOR_COEFF= ( 0.5, 0.02 )
%
% Time discretization (RUNGE-KUTTA_EXPLICIT, EULER_IMPLICIT, EULER_EXPLICIT)
TIME_DISCRE_FLOW= EULER_IMPLICIT


% ----------------------- GEOMETRY EVALUATION PARAMETERS ----------------------%
%
% Marker(s) of the surface where geometrical based function will be evaluated
%GEO_MARKER= ( UPPER_SIDE, LOWER_SIDE, TIP )
%
% Description of the geometry to be analyzed (AIRFOIL, WING, FUSELAGE)
%GEO_DESCRIPTION= WING
%
% Coordinate of the stations to be analyzed
%GEO_LOCATION_STATIONS= (0.0, 0.2, 0.4, 0.6, 0.8)
%
% Geometrical bounds (Y coordinate) for the wing geometry analysis or
% fuselage evaluation (X coordinate)
%GEO_BOUNDS= (0, 3)
%
% Plot loads and Cp distributions on each airfoil section
%GEO_PLOT_STATIONS= YES 
%
% Number of section cuts to make when calculating wing geometry
%GEO_NUMBER_STATIONS= 25
%
% Geometrical evaluation mode (FUNCTION, GRADIENT)
%GEO_MODE= FUNCTION

% --------------------------- CONVERGENCE PARAMETERS --------------------------&
%
% Convergence criteria (CAUCHY, RESIDUAL)
CONV_CRITERIA= RESIDUAL
%
% Min value of the residual (log10 of the residual)
CONV_RESIDUAL_MINVAL= -8
%
% Start convergence criteria at iteration number
CONV_STARTITER= 200
%
% Number of elements to apply the criteria
%CONV_CAUCHY_ELEMS= 100
%
% Epsilon to control the series convergence
CONV_CAUCHY_EPS= 1E-4

% ------------------------- INPUT/OUTPUT INFORMATION --------------------------%
%
% Mesh input file
MESH_FILENAME= optimizer_output/mesh_files/wing_0.su2
%
% Mesh input file format (SU2)
MESH_FORMAT= SU2
%
% Output tabular format (CSV, TECPLOT)
TABULAR_FORMAT= CSV
%

% Files to output 
% Possible formats : (TECPLOT, TECPLOT_BINARY, SURFACE_TECPLOT,
%  SURFACE_TECPLOT_BINARY, CSV, SURFACE_CSV, PARAVIEW, PARAVIEW_BINARY, SURFACE_PARAVIEW, 
%  SURFACE_PARAVIEW_BINARY, MESH, RESTART_BINARY, RESTART_ASCII, CGNS, STL)
% default : (RESTART, PARAVIEW, SURFACE_PARAVIEW)
%OUTPUT_FILES= (RESTART, PARAVIEW, SURFACE_PARAVIEW)

% Output file convergence history
CONV_FILENAME= optimizer_output/su2_solution_files/history_files/history_0
%
% History output
HISTORY_OUTPUT= (ITER, RMS_RES, AERO_COEFF,FIXED_CL,AOA)
%
% Output file restart flow
RESTART_FILENAME= optimizer_output/su2_solution_files/restart_files/restart_flow_0.dat
%
% Output file flow (w/o extension) variables
%VOLUME_FILENAME= flow
%
% Output file surface flow coefficient (w/o extension)
%SURFACE_FILENAME= surface_flow
%
% Writing solution file frequency
WRT_SOL_FREQ= 400
%
% Writing solution file frequency for physical time steps (dual time)
WRT_SOL_FREQ_DUALTIME= 1
%
% Writing convergence history frequency
WRT_CON_FREQ= 10
%
% Writing convergence history frequency (dual time, only written to screen)
WRT_CON_FREQ_DUALTIME= 1
%
% Screen output
SCREEN_OUTPUT= (INNER_ITER,WALL_TIME, RMS_DENSITY, RMS_ENERGY, LIFT, DRAG, AOA)
%
% Mesh output file
%MESH_OUT_FILENAME= mesh_out.su2
%
% Restart flow input file
SOLUTION_FILENAME= optimizer_output/restart_naca_files/restart_naca_0.dat
%
%RESTART_ITER= 1
%
% Read binary restart files (YES, NO)
READ_BINARY_RESTART= YES
%
% Comment this variable to get solution files( *vtk )
%VOLUME_OUTPUT= ( PRIMITIVE )
